[root]
type=Root
children=system
eventq_index=0
full_system=false
sim_quantum=0
time_sync_enable=false
time_sync_period=100000000000
time_sync_spin_threshold=100000000

[system]
type=System
children=clk_domain cpu cpu_clk_domain cpu_voltage_domain dvfs_handler mem_ctrls redirect_paths0 redirect_paths1 redirect_paths2 ruby sys_port_proxy voltage_domain
byte_order=little
cache_line_size=64
eventq_index=0
exit_on_work_items=false
init_param=0
m5ops_base=0
mem_mode=timing
mem_ranges=0:536870912
memories=system.mem_ctrls.dram
mmap_using_noreserve=false
multi_thread=false
num_work_ids=16
readfile=
redirect_paths=system.redirect_paths0 system.redirect_paths1 system.redirect_paths2
shared_backstore=
symbolfile=
thermal_components=
thermal_model=Null
work_begin_ckpt_count=0
work_begin_cpu_id_exit=-1
work_begin_exit_count=0
work_cpus_ckpt_count=0
work_end_ckpt_count=0
work_end_exit_count=0
work_item_id=-1
workload=Null
system_port=system.sys_port_proxy.in_ports[0]

[system.clk_domain]
type=SrcClockDomain
clock=1000
domain_id=-1
eventq_index=0
init_perf_level=0
voltage_domain=system.voltage_domain

[system.cpu]
type=TimingSimpleCPU
children=dtb interrupts isa itb power_state tracer workload
branchPred=Null
checker=Null
clk_domain=system.cpu_clk_domain
cpu_id=0
do_checkpoint_insts=true
do_statistics_insts=true
dtb=system.cpu.dtb
eventq_index=0
function_trace=false
function_trace_start=0
interrupts=system.cpu.interrupts
isa=system.cpu.isa
itb=system.cpu.itb
max_insts_all_threads=0
max_insts_any_thread=0
numThreads=1
power_gating_on_idle=false
power_model=
power_state=system.cpu.power_state
progress_interval=0
pwr_gating_latency=300
simpoint_start_insts=
socket_id=0
switched_out=false
syscallRetryLatency=10000
system=system
tracer=system.cpu.tracer
wait_for_remote_gdb=false
workload=system.cpu.workload
dcache_port=system.ruby.l1_cntrl0.sequencer.in_ports[1]
icache_port=system.ruby.l1_cntrl0.sequencer.in_ports[0]

[system.cpu.dtb]
type=ArmTLB
children=stage2_mmu walker
eventq_index=0
is_stage2=false
size=64
sys=system
walker=system.cpu.dtb.walker

[system.cpu.dtb.stage2_mmu]
type=ArmStage2MMU
children=stage2_tlb
eventq_index=0
stage2_tlb=system.cpu.dtb.stage2_mmu.stage2_tlb
sys=system
tlb=system.cpu.dtb

[system.cpu.dtb.stage2_mmu.stage2_tlb]
type=ArmTLB
children=walker
eventq_index=0
is_stage2=true
size=32
sys=system
walker=system.cpu.dtb.stage2_mmu.stage2_tlb.walker

[system.cpu.dtb.stage2_mmu.stage2_tlb.walker]
type=ArmTableWalker
children=power_state
clk_domain=system.cpu_clk_domain
eventq_index=0
is_stage2=true
num_squash_per_cycle=2
power_model=
power_state=system.cpu.dtb.stage2_mmu.stage2_tlb.walker.power_state
sys=system

[system.cpu.dtb.stage2_mmu.stage2_tlb.walker.power_state]
type=PowerState
clk_gate_bins=20
clk_gate_max=1000000000000
clk_gate_min=1000
default_state=UNDEFINED
eventq_index=0
leaders=
possible_states=

[system.cpu.dtb.walker]
type=ArmTableWalker
children=power_state
clk_domain=system.cpu_clk_domain
eventq_index=0
is_stage2=false
num_squash_per_cycle=2
power_model=
power_state=system.cpu.dtb.walker.power_state
sys=system

[system.cpu.dtb.walker.power_state]
type=PowerState
clk_gate_bins=20
clk_gate_max=1000000000000
clk_gate_min=1000
default_state=UNDEFINED
eventq_index=0
leaders=
possible_states=

[system.cpu.interrupts]
type=ArmInterrupts
eventq_index=0

[system.cpu.isa]
type=ArmISA
decoderFlavor=Generic
eventq_index=0
fpsid=1090793632
id_aa64afr0_el1=0
id_aa64afr1_el1=0
id_aa64dfr0_el1=15790086
id_aa64dfr1_el1=0
id_aa64isar0_el1=0
id_aa64isar1_el1=16846864
id_aa64mmfr0_el1=15728642
id_aa64mmfr1_el1=1052928
id_aa64mmfr2_el1=0
id_isar0=34607377
id_isar1=34677009
id_isar2=555950401
id_isar3=17899825
id_isar4=268501314
id_isar5=268435456
id_mmfr0=270536963
id_mmfr1=0
id_mmfr2=19070976
id_mmfr3=34611729
impdef_nop=false
midr=0
pmu=Null
sve_vl_se=1
system=system

[system.cpu.itb]
type=ArmTLB
children=stage2_mmu walker
eventq_index=0
is_stage2=false
size=64
sys=system
walker=system.cpu.itb.walker

[system.cpu.itb.stage2_mmu]
type=ArmStage2MMU
children=stage2_tlb
eventq_index=0
stage2_tlb=system.cpu.itb.stage2_mmu.stage2_tlb
sys=system
tlb=system.cpu.itb

[system.cpu.itb.stage2_mmu.stage2_tlb]
type=ArmTLB
children=walker
eventq_index=0
is_stage2=true
size=32
sys=system
walker=system.cpu.itb.stage2_mmu.stage2_tlb.walker

[system.cpu.itb.stage2_mmu.stage2_tlb.walker]
type=ArmTableWalker
children=power_state
clk_domain=system.cpu_clk_domain
eventq_index=0
is_stage2=true
num_squash_per_cycle=2
power_model=
power_state=system.cpu.itb.stage2_mmu.stage2_tlb.walker.power_state
sys=system

[system.cpu.itb.stage2_mmu.stage2_tlb.walker.power_state]
type=PowerState
clk_gate_bins=20
clk_gate_max=1000000000000
clk_gate_min=1000
default_state=UNDEFINED
eventq_index=0
leaders=
possible_states=

[system.cpu.itb.walker]
type=ArmTableWalker
children=power_state
clk_domain=system.cpu_clk_domain
eventq_index=0
is_stage2=false
num_squash_per_cycle=2
power_model=
power_state=system.cpu.itb.walker.power_state
sys=system

[system.cpu.itb.walker.power_state]
type=PowerState
clk_gate_bins=20
clk_gate_max=1000000000000
clk_gate_min=1000
default_state=UNDEFINED
eventq_index=0
leaders=
possible_states=

[system.cpu.power_state]
type=PowerState
clk_gate_bins=20
clk_gate_max=1000000000000
clk_gate_min=1000
default_state=UNDEFINED
eventq_index=0
leaders=
possible_states=ON CLK_GATED OFF

[system.cpu.tracer]
type=ExeTracer
eventq_index=0

[system.cpu.workload]
type=Process
cmd=myprog_arm
cwd=/home/nikos/Documents/gem5
drivers=
egid=100
env=
errout=cerr
euid=100
eventq_index=0
executable=myprog_arm
gid=100
input=cin
kvmInSE=false
maxStackSize=67108864
output=cout
pgid=100
pid=100
ppid=0
release=5.1.0
simpoint=0
system=system
uid=100
useArchPT=false

[system.cpu_clk_domain]
type=SrcClockDomain
clock=500
domain_id=-1
eventq_index=0
init_perf_level=0
voltage_domain=system.cpu_voltage_domain

[system.cpu_voltage_domain]
type=VoltageDomain
eventq_index=0
voltage=1.0

[system.dvfs_handler]
type=DVFSHandler
domains=
enable=false
eventq_index=0
sys_clk_domain=system.clk_domain
transition_latency=100000000

[system.mem_ctrls]
type=MemCtrl
children=dram power_state
clk_domain=system.clk_domain
command_window=10000
dram=system.mem_ctrls.dram
eventq_index=0
mem_sched_policy=frfcfs
min_writes_per_switch=16
nvm=Null
power_model=
power_state=system.mem_ctrls.power_state
qos_policy=Null
qos_priorities=1
qos_priority_escalation=false
qos_q_policy=fifo
qos_requestors=               
qos_syncro_scheduler=false
qos_turnaround_policy=Null
static_backend_latency=10000
static_frontend_latency=10000
system=system
write_high_thresh_perc=85
write_low_thresh_perc=50
port=system.ruby.dir_cntrl0.memory_out_port

[system.mem_ctrls.dram]
type=DRAMInterface
children=power_state
IDD0=0.055
IDD02=0.0
IDD2N=0.032
IDD2N2=0.0
IDD2P0=0.0
IDD2P02=0.0
IDD2P1=0.032
IDD2P12=0.0
IDD3N=0.038
IDD3N2=0.0
IDD3P0=0.0
IDD3P02=0.0
IDD3P1=0.038
IDD3P12=0.0
IDD4R=0.157
IDD4R2=0.0
IDD4W=0.125
IDD4W2=0.0
IDD5=0.23500000000000001
IDD52=0.0
IDD6=0.02
IDD62=0.0
VDD=1.5
VDD2=0.0
activation_limit=4
addr_mapping=RoRaBaCoCh
bank_groups_per_rank=0
banks_per_rank=8
beats_per_clock=2
burst_length=8
clk_domain=system.clk_domain
conf_table_reported=true
data_clock_sync=false
device_bus_width=8
device_rowbuffer_size=1024
device_size=536870912
devices_per_rank=8
dll=true
enable_dram_powerdown=false
eventq_index=0
image_file=
in_addr_map=true
kvm_map=true
max_accesses_per_row=16
null=false
page_policy=open_adaptive
power_model=
power_state=system.mem_ctrls.dram.power_state
range=0:536870912
ranks_per_channel=2
read_buffer_size=32
tAAD=1250
tBURST=5000
tBURST_MAX=5000
tBURST_MIN=5000
tCCD_L=0
tCCD_L_WR=0
tCK=1250
tCL=13750
tCS=2500
tPPD=0
tRAS=35000
tRCD=13750
tREFI=7800000
tRFC=260000
tRP=13750
tRRD=6000
tRRD_L=0
tRTP=7500
tRTW=2500
tWR=15000
tWTR=7500
tWTR_L=7500
tXAW=30000
tXP=6000
tXPDLL=0
tXS=270000
tXSDLL=0
two_cycle_activate=false
write_buffer_size=64

[system.mem_ctrls.dram.power_state]
type=PowerState
clk_gate_bins=20
clk_gate_max=1000000000000
clk_gate_min=1000
default_state=UNDEFINED
eventq_index=0
leaders=
possible_states=

[system.mem_ctrls.power_state]
type=PowerState
clk_gate_bins=20
clk_gate_max=1000000000000
clk_gate_min=1000
default_state=UNDEFINED
eventq_index=0
leaders=
possible_states=

[system.redirect_paths0]
type=RedirectPath
app_path=/proc
eventq_index=0
host_paths=timing_results_ruby/fs/proc

[system.redirect_paths1]
type=RedirectPath
app_path=/sys
eventq_index=0
host_paths=timing_results_ruby/fs/sys

[system.redirect_paths2]
type=RedirectPath
app_path=/tmp
eventq_index=0
host_paths=timing_results_ruby/fs/tmp

[system.ruby]
type=RubySystem
children=clk_domain dir_cntrl0 l1_cntrl0 l2_cntrl0 memctrl_clk_domain network power_state
access_backing_store=false
all_instructions=false
block_size_bytes=64
clk_domain=system.ruby.clk_domain
eventq_index=0
hot_lines=false
memory_size_bits=48
num_of_sequencers=1
number_of_virtual_networks=3
phys_mem=Null
power_model=
power_state=system.ruby.power_state
randomization=false
system=system

[system.ruby.clk_domain]
type=SrcClockDomain
clock=500
domain_id=-1
eventq_index=0
init_perf_level=0
voltage_domain=system.voltage_domain

[system.ruby.dir_cntrl0]
type=Directory_Controller
children=directory forwardFromDir power_state requestToDir requestToMemory responseFromDir responseFromMemory responseToDir triggerQueue
addr_ranges=0:536870912
buffer_size=0
clk_domain=system.ruby.clk_domain
cluster_id=0
directory=system.ruby.dir_cntrl0.directory
directory_latency=6
eventq_index=0
forwardFromDir=system.ruby.dir_cntrl0.forwardFromDir
mandatory_queue_latency=1
number_of_TBEs=256
power_model=
power_state=system.ruby.dir_cntrl0.power_state
recycle_latency=10
requestToDir=system.ruby.dir_cntrl0.requestToDir
requestToMemory=system.ruby.dir_cntrl0.requestToMemory
responseFromDir=system.ruby.dir_cntrl0.responseFromDir
responseFromMemory=system.ruby.dir_cntrl0.responseFromMemory
responseToDir=system.ruby.dir_cntrl0.responseToDir
ruby_system=system.ruby
system=system
to_memory_controller_latency=1
transitions_per_cycle=32
triggerQueue=system.ruby.dir_cntrl0.triggerQueue
version=0
memory_out_port=system.mem_ctrls.port

[system.ruby.dir_cntrl0.directory]
type=RubyDirectoryMemory
addr_ranges=0:536870912
eventq_index=0

[system.ruby.dir_cntrl0.forwardFromDir]
type=MessageBuffer
buffer_size=0
eventq_index=0
ordered=false
randomization=false
out_port=system.ruby.network.in_port[6]

[system.ruby.dir_cntrl0.power_state]
type=PowerState
clk_gate_bins=20
clk_gate_max=1000000000000
clk_gate_min=1000
default_state=UNDEFINED
eventq_index=0
leaders=
possible_states=

[system.ruby.dir_cntrl0.requestToDir]
type=MessageBuffer
buffer_size=0
eventq_index=0
ordered=false
randomization=false
in_port=system.ruby.network.out_port[5]

[system.ruby.dir_cntrl0.requestToMemory]
type=MessageBuffer
buffer_size=0
eventq_index=0
ordered=false
randomization=false

[system.ruby.dir_cntrl0.responseFromDir]
type=MessageBuffer
buffer_size=0
eventq_index=0
ordered=false
randomization=false
out_port=system.ruby.network.in_port[5]

[system.ruby.dir_cntrl0.responseFromMemory]
type=MessageBuffer
buffer_size=0
eventq_index=0
ordered=false
randomization=false

[system.ruby.dir_cntrl0.responseToDir]
type=MessageBuffer
buffer_size=0
eventq_index=0
ordered=false
randomization=false
in_port=system.ruby.network.out_port[6]

[system.ruby.dir_cntrl0.triggerQueue]
type=MessageBuffer
buffer_size=0
eventq_index=0
ordered=true
randomization=false

[system.ruby.l1_cntrl0]
type=L1Cache_Controller
children=L1Dcache L1Icache mandatoryQueue power_state requestFromL1Cache requestToL1Cache responseFromL1Cache responseToL1Cache sequencer triggerQueue
L1Dcache=system.ruby.l1_cntrl0.L1Dcache
L1Icache=system.ruby.l1_cntrl0.L1Icache
addr_ranges=0:18446744073709551615
buffer_size=0
clk_domain=system.cpu_clk_domain
cluster_id=0
eventq_index=0
mandatoryQueue=system.ruby.l1_cntrl0.mandatoryQueue
mandatory_queue_latency=1
number_of_TBEs=256
power_model=
power_state=system.ruby.l1_cntrl0.power_state
recycle_latency=10
requestFromL1Cache=system.ruby.l1_cntrl0.requestFromL1Cache
requestToL1Cache=system.ruby.l1_cntrl0.requestToL1Cache
request_latency=1
responseFromL1Cache=system.ruby.l1_cntrl0.responseFromL1Cache
responseToL1Cache=system.ruby.l1_cntrl0.responseToL1Cache
response_latency=1
ruby_system=system.ruby
send_evictions=true
sequencer=system.ruby.l1_cntrl0.sequencer
system=system
transitions_per_cycle=4
triggerQueue=system.ruby.l1_cntrl0.triggerQueue
use_timeout_latency=50
version=0

[system.ruby.l1_cntrl0.L1Dcache]
type=RubyCache
children=replacement_policy
assoc=2
block_size=0
dataAccessLatency=1
dataArrayBanks=1
eventq_index=0
is_icache=false
replacement_policy=system.ruby.l1_cntrl0.L1Dcache.replacement_policy
resourceStalls=false
ruby_system=system.ruby
size=65536
start_index_bit=6
tagAccessLatency=1
tagArrayBanks=1

[system.ruby.l1_cntrl0.L1Dcache.replacement_policy]
type=TreePLRURP
eventq_index=0
num_leaves=2

[system.ruby.l1_cntrl0.L1Icache]
type=RubyCache
children=replacement_policy
assoc=2
block_size=0
dataAccessLatency=1
dataArrayBanks=1
eventq_index=0
is_icache=true
replacement_policy=system.ruby.l1_cntrl0.L1Icache.replacement_policy
resourceStalls=false
ruby_system=system.ruby
size=32768
start_index_bit=6
tagAccessLatency=1
tagArrayBanks=1

[system.ruby.l1_cntrl0.L1Icache.replacement_policy]
type=TreePLRURP
eventq_index=0
num_leaves=2

[system.ruby.l1_cntrl0.mandatoryQueue]
type=MessageBuffer
buffer_size=0
eventq_index=0
ordered=false
randomization=false

[system.ruby.l1_cntrl0.power_state]
type=PowerState
clk_gate_bins=20
clk_gate_max=1000000000000
clk_gate_min=1000
default_state=UNDEFINED
eventq_index=0
leaders=
possible_states=

[system.ruby.l1_cntrl0.requestFromL1Cache]
type=MessageBuffer
buffer_size=0
eventq_index=0
ordered=false
randomization=false
out_port=system.ruby.network.in_port[0]

[system.ruby.l1_cntrl0.requestToL1Cache]
type=MessageBuffer
buffer_size=0
eventq_index=0
ordered=false
randomization=false
in_port=system.ruby.network.out_port[0]

[system.ruby.l1_cntrl0.responseFromL1Cache]
type=MessageBuffer
buffer_size=0
eventq_index=0
ordered=false
randomization=false
out_port=system.ruby.network.in_port[1]

[system.ruby.l1_cntrl0.responseToL1Cache]
type=MessageBuffer
buffer_size=0
eventq_index=0
ordered=false
randomization=false
in_port=system.ruby.network.out_port[1]

[system.ruby.l1_cntrl0.sequencer]
type=RubySequencer
children=power_state
clk_domain=system.cpu_clk_domain
coreid=99
dcache=system.ruby.l1_cntrl0.L1Dcache
deadlock_threshold=500000
eventq_index=0
garnet_standalone=false
icache=system.ruby.l1_cntrl0.L1Icache
is_cpu_sequencer=true
max_outstanding_requests=16
no_retry_on_stall=false
power_model=
power_state=system.ruby.l1_cntrl0.sequencer.power_state
ruby_system=system.ruby
support_data_reqs=true
support_inst_reqs=true
system=system
using_ruby_tester=false
version=0
in_ports=system.cpu.icache_port system.cpu.dcache_port

[system.ruby.l1_cntrl0.sequencer.power_state]
type=PowerState
clk_gate_bins=20
clk_gate_max=1000000000000
clk_gate_min=1000
default_state=UNDEFINED
eventq_index=0
leaders=
possible_states=

[system.ruby.l1_cntrl0.triggerQueue]
type=MessageBuffer
buffer_size=0
eventq_index=0
ordered=true
randomization=false

[system.ruby.l2_cntrl0]
type=L2Cache_Controller
children=GlobalRequestFromL2Cache GlobalRequestToL2Cache L1RequestFromL2Cache L1RequestToL2Cache L2cache power_state responseFromL2Cache responseToL2Cache triggerQueue
GlobalRequestFromL2Cache=system.ruby.l2_cntrl0.GlobalRequestFromL2Cache
GlobalRequestToL2Cache=system.ruby.l2_cntrl0.GlobalRequestToL2Cache
L1RequestFromL2Cache=system.ruby.l2_cntrl0.L1RequestFromL2Cache
L1RequestToL2Cache=system.ruby.l2_cntrl0.L1RequestToL2Cache
L2cache=system.ruby.l2_cntrl0.L2cache
addr_ranges=0:536870912
buffer_size=0
clk_domain=system.ruby.clk_domain
cluster_id=0
eventq_index=0
mandatory_queue_latency=1
number_of_TBEs=256
power_model=
power_state=system.ruby.l2_cntrl0.power_state
recycle_latency=10
request_latency=1
responseFromL2Cache=system.ruby.l2_cntrl0.responseFromL2Cache
responseToL2Cache=system.ruby.l2_cntrl0.responseToL2Cache
response_latency=1
ruby_system=system.ruby
system=system
transitions_per_cycle=4
triggerQueue=system.ruby.l2_cntrl0.triggerQueue
version=0

[system.ruby.l2_cntrl0.GlobalRequestFromL2Cache]
type=MessageBuffer
buffer_size=0
eventq_index=0
ordered=false
randomization=false
out_port=system.ruby.network.in_port[2]

[system.ruby.l2_cntrl0.GlobalRequestToL2Cache]
type=MessageBuffer
buffer_size=0
eventq_index=0
ordered=false
randomization=false
in_port=system.ruby.network.out_port[2]

[system.ruby.l2_cntrl0.L1RequestFromL2Cache]
type=MessageBuffer
buffer_size=0
eventq_index=0
ordered=false
randomization=false
out_port=system.ruby.network.in_port[3]

[system.ruby.l2_cntrl0.L1RequestToL2Cache]
type=MessageBuffer
buffer_size=0
eventq_index=0
ordered=false
randomization=false
in_port=system.ruby.network.out_port[3]

[system.ruby.l2_cntrl0.L2cache]
type=RubyCache
children=replacement_policy
assoc=8
block_size=0
dataAccessLatency=20
dataArrayBanks=1
eventq_index=0
is_icache=false
replacement_policy=system.ruby.l2_cntrl0.L2cache.replacement_policy
resourceStalls=false
ruby_system=system.ruby
size=2097152
start_index_bit=6
tagAccessLatency=20
tagArrayBanks=1

[system.ruby.l2_cntrl0.L2cache.replacement_policy]
type=TreePLRURP
eventq_index=0
num_leaves=8

[system.ruby.l2_cntrl0.power_state]
type=PowerState
clk_gate_bins=20
clk_gate_max=1000000000000
clk_gate_min=1000
default_state=UNDEFINED
eventq_index=0
leaders=
possible_states=

[system.ruby.l2_cntrl0.responseFromL2Cache]
type=MessageBuffer
buffer_size=0
eventq_index=0
ordered=false
randomization=false
out_port=system.ruby.network.in_port[4]

[system.ruby.l2_cntrl0.responseToL2Cache]
type=MessageBuffer
buffer_size=0
eventq_index=0
ordered=false
randomization=false
in_port=system.ruby.network.out_port[4]

[system.ruby.l2_cntrl0.triggerQueue]
type=MessageBuffer
buffer_size=0
eventq_index=0
ordered=true
randomization=false

[system.ruby.memctrl_clk_domain]
type=DerivedClockDomain
clk_divider=3
clk_domain=system.ruby.clk_domain
eventq_index=0

[system.ruby.network]
type=SimpleNetwork
children=ext_links0 ext_links1 ext_links2 int_link_buffers00 int_link_buffers01 int_link_buffers02 int_link_buffers03 int_link_buffers04 int_link_buffers05 int_link_buffers06 int_link_buffers07 int_link_buffers08 int_link_buffers09 int_link_buffers10 int_link_buffers11 int_link_buffers12 int_link_buffers13 int_link_buffers14 int_link_buffers15 int_link_buffers16 int_link_buffers17 int_link_buffers18 int_link_buffers19 int_link_buffers20 int_link_buffers21 int_link_buffers22 int_link_buffers23 int_link_buffers24 int_link_buffers25 int_link_buffers26 int_link_buffers27 int_link_buffers28 int_link_buffers29 int_link_buffers30 int_link_buffers31 int_link_buffers32 int_link_buffers33 int_link_buffers34 int_link_buffers35 int_links0 int_links1 int_links2 int_links3 int_links4 int_links5 power_state routers0 routers1 routers2 routers3
adaptive_routing=false
buffer_size=0
clk_domain=system.ruby.clk_domain
control_msg_size=8
endpoint_bandwidth=1000
eventq_index=0
ext_links=system.ruby.network.ext_links0 system.ruby.network.ext_links1 system.ruby.network.ext_links2
int_link_buffers=system.ruby.network.int_link_buffers00 system.ruby.network.int_link_buffers01 system.ruby.network.int_link_buffers02 system.ruby.network.int_link_buffers03 system.ruby.network.int_link_buffers04 system.ruby.network.int_link_buffers05 system.ruby.network.int_link_buffers06 system.ruby.network.int_link_buffers07 system.ruby.network.int_link_buffers08 system.ruby.network.int_link_buffers09 system.ruby.network.int_link_buffers10 system.ruby.network.int_link_buffers11 system.ruby.network.int_link_buffers12 system.ruby.network.int_link_buffers13 system.ruby.network.int_link_buffers14 system.ruby.network.int_link_buffers15 system.ruby.network.int_link_buffers16 system.ruby.network.int_link_buffers17 system.ruby.network.int_link_buffers18 system.ruby.network.int_link_buffers19 system.ruby.network.int_link_buffers20 system.ruby.network.int_link_buffers21 system.ruby.network.int_link_buffers22 system.ruby.network.int_link_buffers23 system.ruby.network.int_link_buffers24 system.ruby.network.int_link_buffers25 system.ruby.network.int_link_buffers26 system.ruby.network.int_link_buffers27 system.ruby.network.int_link_buffers28 system.ruby.network.int_link_buffers29 system.ruby.network.int_link_buffers30 system.ruby.network.int_link_buffers31 system.ruby.network.int_link_buffers32 system.ruby.network.int_link_buffers33 system.ruby.network.int_link_buffers34 system.ruby.network.int_link_buffers35
int_links=system.ruby.network.int_links0 system.ruby.network.int_links1 system.ruby.network.int_links2 system.ruby.network.int_links3 system.ruby.network.int_links4 system.ruby.network.int_links5
netifs=
number_of_virtual_networks=3
power_model=
power_state=system.ruby.network.power_state
routers=system.ruby.network.routers0 system.ruby.network.routers1 system.ruby.network.routers2 system.ruby.network.routers3
ruby_system=system.ruby
topology=Crossbar
in_port=system.ruby.l1_cntrl0.requestFromL1Cache.out_port system.ruby.l1_cntrl0.responseFromL1Cache.out_port system.ruby.l2_cntrl0.GlobalRequestFromL2Cache.out_port system.ruby.l2_cntrl0.L1RequestFromL2Cache.out_port system.ruby.l2_cntrl0.responseFromL2Cache.out_port system.ruby.dir_cntrl0.responseFromDir.out_port system.ruby.dir_cntrl0.forwardFromDir.out_port
out_port=system.ruby.l1_cntrl0.requestToL1Cache.in_port system.ruby.l1_cntrl0.responseToL1Cache.in_port system.ruby.l2_cntrl0.GlobalRequestToL2Cache.in_port system.ruby.l2_cntrl0.L1RequestToL2Cache.in_port system.ruby.l2_cntrl0.responseToL2Cache.in_port system.ruby.dir_cntrl0.requestToDir.in_port system.ruby.dir_cntrl0.responseToDir.in_port

[system.ruby.network.ext_links0]
type=SimpleExtLink
bandwidth_factor=16
eventq_index=0
ext_node=system.ruby.l1_cntrl0
int_node=system.ruby.network.routers0
latency=1
link_id=0
supported_vnets=
weight=1

[system.ruby.network.ext_links1]
type=SimpleExtLink
bandwidth_factor=16
eventq_index=0
ext_node=system.ruby.l2_cntrl0
int_node=system.ruby.network.routers1
latency=1
link_id=1
supported_vnets=
weight=1

[system.ruby.network.ext_links2]
type=SimpleExtLink
bandwidth_factor=16
eventq_index=0
ext_node=system.ruby.dir_cntrl0
int_node=system.ruby.network.routers2
latency=1
link_id=2
supported_vnets=
weight=1

[system.ruby.network.int_link_buffers00]
type=MessageBuffer
buffer_size=0
eventq_index=0
ordered=true
randomization=false

[system.ruby.network.int_link_buffers01]
type=MessageBuffer
buffer_size=0
eventq_index=0
ordered=true
randomization=false

[system.ruby.network.int_link_buffers02]
type=MessageBuffer
buffer_size=0
eventq_index=0
ordered=true
randomization=false

[system.ruby.network.int_link_buffers03]
type=MessageBuffer
buffer_size=0
eventq_index=0
ordered=true
randomization=false

[system.ruby.network.int_link_buffers04]
type=MessageBuffer
buffer_size=0
eventq_index=0
ordered=true
randomization=false

[system.ruby.network.int_link_buffers05]
type=MessageBuffer
buffer_size=0
eventq_index=0
ordered=true
randomization=false

[system.ruby.network.int_link_buffers06]
type=MessageBuffer
buffer_size=0
eventq_index=0
ordered=true
randomization=false

[system.ruby.network.int_link_buffers07]
type=MessageBuffer
buffer_size=0
eventq_index=0
ordered=true
randomization=false

[system.ruby.network.int_link_buffers08]
type=MessageBuffer
buffer_size=0
eventq_index=0
ordered=true
randomization=false

[system.ruby.network.int_link_buffers09]
type=MessageBuffer
buffer_size=0
eventq_index=0
ordered=true
randomization=false

[system.ruby.network.int_link_buffers10]
type=MessageBuffer
buffer_size=0
eventq_index=0
ordered=true
randomization=false

[system.ruby.network.int_link_buffers11]
type=MessageBuffer
buffer_size=0
eventq_index=0
ordered=true
randomization=false

[system.ruby.network.int_link_buffers12]
type=MessageBuffer
buffer_size=0
eventq_index=0
ordered=true
randomization=false

[system.ruby.network.int_link_buffers13]
type=MessageBuffer
buffer_size=0
eventq_index=0
ordered=true
randomization=false

[system.ruby.network.int_link_buffers14]
type=MessageBuffer
buffer_size=0
eventq_index=0
ordered=true
randomization=false

[system.ruby.network.int_link_buffers15]
type=MessageBuffer
buffer_size=0
eventq_index=0
ordered=true
randomization=false

[system.ruby.network.int_link_buffers16]
type=MessageBuffer
buffer_size=0
eventq_index=0
ordered=true
randomization=false

[system.ruby.network.int_link_buffers17]
type=MessageBuffer
buffer_size=0
eventq_index=0
ordered=true
randomization=false

[system.ruby.network.int_link_buffers18]
type=MessageBuffer
buffer_size=0
eventq_index=0
ordered=true
randomization=false

[system.ruby.network.int_link_buffers19]
type=MessageBuffer
buffer_size=0
eventq_index=0
ordered=true
randomization=false

[system.ruby.network.int_link_buffers20]
type=MessageBuffer
buffer_size=0
eventq_index=0
ordered=true
randomization=false

[system.ruby.network.int_link_buffers21]
type=MessageBuffer
buffer_size=0
eventq_index=0
ordered=true
randomization=false

[system.ruby.network.int_link_buffers22]
type=MessageBuffer
buffer_size=0
eventq_index=0
ordered=true
randomization=false

[system.ruby.network.int_link_buffers23]
type=MessageBuffer
buffer_size=0
eventq_index=0
ordered=true
randomization=false

[system.ruby.network.int_link_buffers24]
type=MessageBuffer
buffer_size=0
eventq_index=0
ordered=true
randomization=false

[system.ruby.network.int_link_buffers25]
type=MessageBuffer
buffer_size=0
eventq_index=0
ordered=true
randomization=false

[system.ruby.network.int_link_buffers26]
type=MessageBuffer
buffer_size=0
eventq_index=0
ordered=true
randomization=false

[system.ruby.network.int_link_buffers27]
type=MessageBuffer
buffer_size=0
eventq_index=0
ordered=true
randomization=false

[system.ruby.network.int_link_buffers28]
type=MessageBuffer
buffer_size=0
eventq_index=0
ordered=true
randomization=false

[system.ruby.network.int_link_buffers29]
type=MessageBuffer
buffer_size=0
eventq_index=0
ordered=true
randomization=false

[system.ruby.network.int_link_buffers30]
type=MessageBuffer
buffer_size=0
eventq_index=0
ordered=true
randomization=false

[system.ruby.network.int_link_buffers31]
type=MessageBuffer
buffer_size=0
eventq_index=0
ordered=true
randomization=false

[system.ruby.network.int_link_buffers32]
type=MessageBuffer
buffer_size=0
eventq_index=0
ordered=true
randomization=false

[system.ruby.network.int_link_buffers33]
type=MessageBuffer
buffer_size=0
eventq_index=0
ordered=true
randomization=false

[system.ruby.network.int_link_buffers34]
type=MessageBuffer
buffer_size=0
eventq_index=0
ordered=true
randomization=false

[system.ruby.network.int_link_buffers35]
type=MessageBuffer
buffer_size=0
eventq_index=0
ordered=true
randomization=false

[system.ruby.network.int_links0]
type=SimpleIntLink
bandwidth_factor=16
dst_inport=
dst_node=system.ruby.network.routers3
eventq_index=0
latency=1
link_id=3
src_node=system.ruby.network.routers0
src_outport=
supported_vnets=
weight=1

[system.ruby.network.int_links1]
type=SimpleIntLink
bandwidth_factor=16
dst_inport=
dst_node=system.ruby.network.routers3
eventq_index=0
latency=1
link_id=4
src_node=system.ruby.network.routers1
src_outport=
supported_vnets=
weight=1

[system.ruby.network.int_links2]
type=SimpleIntLink
bandwidth_factor=16
dst_inport=
dst_node=system.ruby.network.routers3
eventq_index=0
latency=1
link_id=5
src_node=system.ruby.network.routers2
src_outport=
supported_vnets=
weight=1

[system.ruby.network.int_links3]
type=SimpleIntLink
bandwidth_factor=16
dst_inport=
dst_node=system.ruby.network.routers0
eventq_index=0
latency=1
link_id=6
src_node=system.ruby.network.routers3
src_outport=
supported_vnets=
weight=1

[system.ruby.network.int_links4]
type=SimpleIntLink
bandwidth_factor=16
dst_inport=
dst_node=system.ruby.network.routers1
eventq_index=0
latency=1
link_id=7
src_node=system.ruby.network.routers3
src_outport=
supported_vnets=
weight=1

[system.ruby.network.int_links5]
type=SimpleIntLink
bandwidth_factor=16
dst_inport=
dst_node=system.ruby.network.routers2
eventq_index=0
latency=1
link_id=8
src_node=system.ruby.network.routers3
src_outport=
supported_vnets=
weight=1

[system.ruby.network.power_state]
type=PowerState
clk_gate_bins=20
clk_gate_max=1000000000000
clk_gate_min=1000
default_state=UNDEFINED
eventq_index=0
leaders=
possible_states=

[system.ruby.network.routers0]
type=Switch
children=port_buffers00 port_buffers01 port_buffers02 port_buffers03 port_buffers04 port_buffers05 port_buffers06 port_buffers07 port_buffers08 port_buffers09 port_buffers10 port_buffers11 power_state
clk_domain=system.ruby.clk_domain
eventq_index=0
latency=1
port_buffers=system.ruby.network.routers0.port_buffers00 system.ruby.network.routers0.port_buffers01 system.ruby.network.routers0.port_buffers02 system.ruby.network.routers0.port_buffers03 system.ruby.network.routers0.port_buffers04 system.ruby.network.routers0.port_buffers05 system.ruby.network.routers0.port_buffers06 system.ruby.network.routers0.port_buffers07 system.ruby.network.routers0.port_buffers08 system.ruby.network.routers0.port_buffers09 system.ruby.network.routers0.port_buffers10 system.ruby.network.routers0.port_buffers11
power_model=
power_state=system.ruby.network.routers0.power_state
router_id=0
virt_nets=3

[system.ruby.network.routers0.port_buffers00]
type=MessageBuffer
buffer_size=0
eventq_index=0
ordered=true
randomization=false

[system.ruby.network.routers0.port_buffers01]
type=MessageBuffer
buffer_size=0
eventq_index=0
ordered=true
randomization=false

[system.ruby.network.routers0.port_buffers02]
type=MessageBuffer
buffer_size=0
eventq_index=0
ordered=true
randomization=false

[system.ruby.network.routers0.port_buffers03]
type=MessageBuffer
buffer_size=0
eventq_index=0
ordered=true
randomization=false

[system.ruby.network.routers0.port_buffers04]
type=MessageBuffer
buffer_size=0
eventq_index=0
ordered=true